omf/scratch/gosedPrototypes/OlinBarre.milConverted.glm
///////////////////////////////////////////////////////; 
// This glm created by 'Milsoft to GridLabD Export'. //; 
//             Thu Jan 22 14:39:04 2015              //; 
///////////////////////////////////////////////////////; 

clock { timestamp '2000-01-01 00:00:00'; } 

module powerflow{ solver_method FBS; } 
// Note: Number Of Looped Switches in WindMil = 0 

object node {
          name            BURLINGTON; 
          phases          ABCN; 
          bustype         PQ; 
          voltage_A       +7559.9995+0j; 
          voltage_B       -3779.9998-6547.1514j; 
          voltage_C       -3779.9998+6547.1514j; 
          nominal_voltage 7200; 
          } 

object node {name   F7579_n; phases AN; nominal_voltage 7200;  } 

object fuse {
          name          F7579; 
          from          _20781_n; 
          to            F7579_n; 
          phases        AN; 
          current_limit 0; 
          mean_replacement_time 1.0 ; 
          repair_dist_type      NONE; 
          } 

object node {name   _20781_n; phases AN; nominal_voltage 7200;  } 

object overhead_line {
          name   _20781; 
          from   _20874_n; 
          to     _20781_n; 
          phases AN; 
          length 25.000246; 
          configuration SystemCnstDefaultAN__2 ACSR 1PH_n__2 ACSR N; 
          } 

object node {name   _20874_n; phases ABCN; nominal_voltage 7200;  } 

object overhead_line {
          name   _20874; 
          from   _20741_n; 
          to     _20874_n; 
          phases ABCN; 
          length 232.86157; 
          configuration SystemCnstDefaultABCN__336 ACSR 3PH_n__336 ACSR N; 
          } 

object node {name   T62463032849_n; phases CN; nominal_voltage 120;  } 

object transformer {
          name   T62463032849; 
          from   _20665_n; 
          to     T62463032849_n; 
          phases CN; 
          configuration SINGLE_PHASE-TRAN-25-7200To120V; 
          } 

object node {name   _20665_n; phases CN; nominal_voltage 7200;  } 

object overhead_line {
          name   _20665; 
          from   _20741_n; 
          to     _20665_n; 
          phases CN; 
          length 82.454948; 
          configuration SystemCnstDefaultCN__2 ACSR 1PH_n__2 ACSR N; 
          } 

object node {name   _20741_n; phases ABCN; nominal_voltage 7200;  } 

object overhead_line {
          name   _20741; 
          from   _20531_n; 
          to     _20741_n; 
          phases ABCN; 
          length 247.04346; 
          configuration SystemCnstDefaultABCN__336 ACSR 3PH_n__336 ACSR N; 
          } 

object node {name   _20531_n; phases ABCN; nominal_voltage 7200;  } 

object overhead_line {
          name   _20531; 
          from   _20507_n; 
          to     _20531_n; 
          phases ABCN; 
          length 427.28214; 
          configuration SystemCnstDefaultABCN__336 ACSR 3PH_n__336 ACSR N; 
          } 

object node {name   _20507_n; phases ABCN; nominal_voltage 7200;  } 

object overhead_line {
          name   _20507; 
          from   _20506_n; 
          to     _20507_n; 
          phases ABCN; 
          length 168.46635; 
          configuration SystemCnstDefaultABCN__336 ACSR 3PH_n__336 ACSR N; 
          } 

object node {name   T62463028740_n; phases CN; nominal_voltage 120;  } 

object transformer {
          name   T62463028740; 
          from   _20500_n; 
          to     T62463028740_n; 
          phases CN; 
          configuration SINGLE_PHASE-TRAN-19-7200To120V; 
          } 

object node {name   T62463028430_n; phases CN; nominal_voltage 120;  } 

object transformer {
          name   T62463028430; 
          from   _20478_n; 
          to     T62463028430_n; 
          phases CN; 
          configuration SINGLE_PHASE-TRAN-19-7200To120V; 
          } 

object node {name   _20478_n; phases CN; nominal_voltage 7200;  } 

object overhead_line {
          name   _20478; 
          from   _20479_n; 
          to     _20478_n; 
          phases CN; 
          length 209.24341; 
          configuration SystemCnstDefaultCN__2 ACSR 1PH_n__2 ACSR N; 
          } 

object node {name   _20479_n; phases CN; nominal_voltage 7200;  } 

object overhead_line {
          name   _20479; 
          from   _20501_n; 
          to     _20479_n; 
          phases CN; 
          length 318.94492; 
          configuration SystemCnstDefaultCN__2 ACSR 1PH_n__2 ACSR N; 
          } 

object node {name   _20501_n; phases CN; nominal_voltage 7200;  } 

object overhead_line {
          name   _20501; 
          from   _20500_n; 
          to     _20501_n; 
          phases CN; 
          length 93.347061; 
          configuration SystemCnstDefaultCN__2 ACSR 1PH_n__2 ACSR N; 
          } 

object node {name   _20500_n; phases CN; nominal_voltage 7200;  } 

object overhead_line {
          name   _20500; 
          from   F7572_n; 
          to     _20500_n; 
          phases CN; 
          length 206.81303; 
          configuration SystemCnstDefaultCN__2 ACSR 1PH_n__2 ACSR N; 
          } 

object node {name   F7572_n; phases CN; nominal_voltage 7200;  } 

object fuse {
          name          F7572; 
          from          _20499_n; 
          to            F7572_n; 
          phases        CN; 
          current_limit 0; 
          mean_replacement_time 1.0 ; 
          repair_dist_type      NONE; 
          } 

object node {name   _20499_n; phases CN; nominal_voltage 7200;  } 

object overhead_line {
          name   _20499; 
          from   _20506_n; 
          to     _20499_n; 
          phases CN; 
          length 25.183714; 
          configuration SystemCnstDefaultCN__2 ACSR 1PH_n__2 ACSR N; 
          } 

object node {name   _20506_n; phases ABCN; nominal_voltage 7200;  } 

object overhead_line {
          name   _20506; 
          from   _20369_n; 
          to     _20506_n; 
          phases ABCN; 
          length 178.52611; 
          configuration SystemCnstDefaultABCN__336 ACSR 3PH_n__336 ACSR N; 
          } 

object node {name   _20369_n; phases ABCN; nominal_voltage 7200;  } 

object overhead_line {
          name   _20369; 
          from   _20549_n; 
          to     _20369_n; 
          phases ABCN; 
          length 302.7348; 
          configuration SystemCnstDefaultABCN__336 ACSR 3PH_n__336 ACSR N; 
          } 

object node {name   _20549_n; phases ABCN; nominal_voltage 7200;  } 

object overhead_line {
          name   _20549; 
          from   _20445_n; 
          to     _20549_n; 
          phases ABCN; 
          length 212.61182; 
          configuration SystemCnstDefaultABCN__336 ACSR 3PH_n__336 ACSR N; 
          } 

object node {name   _20445_n; phases ABCN; nominal_voltage 7200;  } 

object overhead_line {
          name   _20445; 
          from   _20881_n; 
          to     _20445_n; 
          phases ABCN; 
          length 465.78629; 
          configuration SystemCnstDefaultABCN__336 ACSR 3PH_n__336 ACSR N; 
          } 

object node {name   _20881_n; phases ABCN; nominal_voltage 7200;  } 

object overhead_line {
          name   _20881; 
          from   _20837_n; 
          to     _20881_n; 
          phases ABCN; 
          length 281.15637; 
          configuration SystemCnstDefaultABCN__336 ACSR 3PH_n__336 ACSR N; 
          } 

object node {name   _20837_n; phases ABCN; nominal_voltage 7200;  } 

object overhead_line {
          name   _20837; 
          from   _20944_n; 
          to     _20837_n; 
          phases ABCN; 
          length 87.546547; 
          configuration SystemCnstDefaultABCN__336 ACSR 3PH_n__336 ACSR N; 
          } 

object node {name   _20944_n; phases ABCN; nominal_voltage 7200;  } 

object overhead_line {
          name   _20944; 
          from   R1182_n; 
          to     _20944_n; 
          phases ABCN; 
          length 82.265869; 
          configuration SystemCnstDefaultABCN__336 ACSR 3PH_n__336 ACSR N; 
          } 

object node {name   R1182_n; phases ABCN; nominal_voltage 7200;  } 

object recloser {
          name                R1182; 
          from                _68299_n; 
          to                  R1182_n; 
          phases              ABCN; 
          max_number_of_tries 0; 
          } 

object node {name   _68299_n; phases ABCN; nominal_voltage 7200;  } 

object overhead_line {
          name   _68299; 
          from   _68298_n; 
          to     _68299_n; 
          phases ABCN; 
          length 24.356331; 
          configuration SystemCnstDefaultABCN__336 ACSR 3PH_n__336 ACSR N; 
          } 

object node {name   _68298_n; phases ABCN; nominal_voltage 7200;  } 

object overhead_line {
          name   _68298; 
          from   _21011_n; 
          to     _68298_n; 
          phases ABCN; 
          length 19.09132; 
          configuration SystemCnstDefaultABCN__336 ACSR 3PH_n__336 ACSR N; 
          } 

object node {name   _21011_n; phases ABCN; nominal_voltage 7200;  } 

object overhead_line {
          name   _21011; 
          from   _21003_n; 
          to     _21011_n; 
          phases ABCN; 
          length 13.075541; 
          configuration SystemCnstDefaultABCN__336 ACSR N; 
          } 

object node {name   _21003_n; phases ABCN; nominal_voltage 7200;  } 

object overhead_line {
          name   _21003; 
          from   BURLINGTON; 
          to     _21003_n; 
          phases ABCN; 
          length 20.623667; 
          configuration SystemCnstDefaultABCN__336 ACSR N; 
          } 

object overhead_line {
          name   _20886; 
          from   F7579_n; 
          to     _20886_n; 
          phases AN; 
          length 409.94232; 
          configuration SystemCnstDefaultAN__2 ACSR 1PH_n__2 ACSR N; 
          } 

object node {name   _20886_n; phases AN; nominal_voltage 7200;  } 

object overhead_line {
          name   _20864; 
          from   _20886_n; 
          to     _20864_n; 
          phases AN; 
          length 204.61618; 
          configuration SystemCnstDefaultAN__2 ACSR 1PH_n__2 ACSR N; 
          } 

object node {name   _20864_n; phases AN; nominal_voltage 7200;  } 

object overhead_line {
          name   _20758; 
          from   _20864_n; 
          to     _20758_n; 
          phases AN; 
          length 226.66217; 
          configuration SystemCnstDefaultAN__2 ACSR 1PH_n__2 ACSR N; 
          } 

object node {name   _20758_n; phases AN; nominal_voltage 7200;  } 

object overhead_line {
          name   _20750; 
          from   _20758_n; 
          to     _20750_n; 
          phases AN; 
          length 29.305676; 
          configuration SystemCnstDefaultAN__2 ACSR 1PH_n__2 ACSR N; 
          } 

object node {name   _20750_n; phases AN; nominal_voltage 7200;  } 

object overhead_line {
          name   _20751; 
          from   _20750_n; 
          to     _20751_n; 
          phases AN; 
          length 94.36174; 
          configuration SystemCnstDefaultAN__2 ACSR 1PH_n__2 ACSR N; 
          } 

object node {name   _20751_n; phases AN; nominal_voltage 7200;  } 

object overhead_line {
          name   _20460; 
          from   _20751_n; 
          to     _20460_n; 
          phases AN; 
          length 162.80753; 
          configuration SystemCnstDefaultAN__2 ACSR 1PH_n__2 ACSR N; 
          } 

object node {name   _20460_n; phases AN; nominal_voltage 7200;  } 

object overhead_line {
          name   _20770; 
          from   _20460_n; 
          to     _20770_n; 
          phases AN; 
          length 218.50015; 
          configuration SystemCnstDefaultAN__2 ACSR 1PH_n__2 ACSR N; 
          } 

object node {name   _20770_n; phases AN; nominal_voltage 7200;  } 

object transformer {
          name   T62474211583; 
          from   _20770_n; 
          to     T62474211583_n; 
          phases AN; 
          configuration SINGLE_PHASE-TRAN-25-7200To120V; 
          } 

object node {name   T62474211583_n; phases AN; nominal_voltage 120;  } 

object overhead_line {
          name   _20611; 
          from   _20751_n; 
          to     _20611_n; 
          phases AN; 
          length 269.0242; 
          configuration SystemCnstDefaultAN__2 ACSR 1PH_n__2 ACSR N; 
          } 

object node {name   _20611_n; phases AN; nominal_voltage 7200;  } 

object overhead_line {
          name   _20553; 
          from   _20611_n; 
          to     _20553_n; 
          phases AN; 
          length 229.97217; 
          configuration SystemCnstDefaultAN__2 ACSR 1PH_n__2 ACSR N; 
          } 

object node {name   _20553_n; phases AN; nominal_voltage 7200;  } 

object transformer {
          name   T62474209464; 
          from   _20553_n; 
          to     T62474209464_n; 
          phases AN; 
          configuration SINGLE_PHASE-TRAN-15-7200To120V; 
          } 

object node {name   T62474209464_n; phases AN; nominal_voltage 120;  } 

object transformer {
          name   T62474211356; 
          from   _20750_n; 
          to     T62474211356_n; 
          phases AN; 
          configuration SINGLE_PHASE-TRAN-15-7200To120V; 
          } 

object node {name   T62474211356_n; phases AN; nominal_voltage 120;  } 

object overhead_line {
          name   _20865; 
          from   _20864_n; 
          to     _20865_n; 
          phases AN; 
          length 57.447945; 
          configuration SystemCnstDefaultAN__2 ACSR 1PH_n__2 ACSR N; 
          } 

object node {name   _20865_n; phases AN; nominal_voltage 7200;  } 

object overhead_line {
          name   _20660; 
          from   _20865_n; 
          to     _20660_n; 
          phases AN; 
          length 236.47827; 
          configuration SystemCnstDefaultAN__2 ACSR 1PH_n__2 ACSR N; 
          } 

object node {name   _20660_n; phases AN; nominal_voltage 7200;  } 

object transformer {
          name   T62474212358; 
          from   _20660_n; 
          to     T62474212358_n; 
          phases AN; 
          configuration SINGLE_PHASE-TRAN-15-7200To120V; 
          } 

object node {name   T62474212358_n; phases AN; nominal_voltage 120;  } 

object transformer {
          name   T62474212237; 
          from   _20865_n; 
          to     T62474212237_n; 
          phases AN; 
          configuration SINGLE_PHASE-TRAN-15-7200To120V; 
          } 

object node {name   T62474212237_n; phases AN; nominal_voltage 120;  } 

object overhead_line {
          name   _20599; 
          from   _20886_n; 
          to     _20599_n; 
          phases AN; 
          length 467.06982; 
          configuration SystemCnstDefaultAN__2 ACSR 1PH_n__2 ACSR N; 
          } 

object node {name   _20599_n; phases AN; nominal_voltage 7200;  } 

object transformer {
          name   T62474210056; 
          from   _20599_n; 
          to     T62474210056_n; 
          phases AN; 
          configuration SINGLE_PHASE-TRAN-25-7200To120V; 
          } 

object node {name   T62474210056_n; phases AN; nominal_voltage 120;  } 

object overhead_line {
          name   _20887; 
          from   _20886_n; 
          to     _20887_n; 
          phases AN; 
          length 248.91708; 
          configuration SystemCnstDefaultAN__2 ACSR 1PH_n__2 ACSR N; 
          } 

object node {name   _20887_n; phases AN; nominal_voltage 7200;  } 

object overhead_line {
          name   _20400; 
          from   _20887_n; 
          to     _20400_n; 
          phases AN; 
          length 216.30673; 
          configuration SystemCnstDefaultAN__2 ACSR 1PH_n__2 ACSR N; 
          } 

object node {name   _20400_n; phases AN; nominal_voltage 7200;  } 

object transformer {
          name   T62474213347; 
          from   _20400_n; 
          to     T62474213347_n; 
          phases AN; 
          configuration SINGLE_PHASE-TRAN-15-7200To120V; 
          } 

object node {name   T62474213347_n; phases AN; nominal_voltage 120;  } 

object overhead_line {
          name   _20788; 
          from   _20874_n; 
          to     _20788_n; 
          phases ABCN; 
          length 267.90292; 
          configuration SystemCnstDefaultABCN__336 ACSR 3PH_n__336 ACSR N; 
          } 

object node {name   _20788_n; phases ABCN; nominal_voltage 7200;  } 

object overhead_line {
          name   _21039; 
          from   _20788_n; 
          to     _21039_n; 
          phases AN; 
          length 29.702805; 
          configuration SystemCnstDefaultAN__2 ACSR 1PH_n__2 ACSR N; 
          } 

object node {name   _21039_n; phases AN; nominal_voltage 7200;  } 

object fuse {
          name          F7409; 
          from          _21039_n; 
          to            F7409_n; 
          phases        AN; 
          current_limit 0; 
          mean_replacement_time 1.0 ; 
          repair_dist_type      NONE; 
          } 

object node {name   F7409_n; phases AN; nominal_voltage 7200;  } 

object overhead_line {
          name   _21038; 
          from   F7409_n; 
          to     _21038_n; 
          phases AN; 
          length 96.860489; 
          configuration SystemCnstDefaultAN__2 ACSR 1PH_n__2 ACSR N; 
          } 

object node {name   _21038_n; phases AN; nominal_voltage 7200;  } 

object transformer {
          name   T62474214099; 
          from   _21038_n; 
          to     T62474214099_n; 
          phases AN; 
          configuration SINGLE_PHASE-TRAN-19-7200To120V; 
          } 

object node {name   T62474214099_n; phases AN; nominal_voltage 120;  } 

object transformer {
          name   T62474214083; 
          from   _20788_n; 
          to     T62474214083_n; 
          phases AN; 
          configuration SINGLE_PHASE-TRAN-10-7200To120V; 
          } 

object node {name   T62474214083_n; phases AN; nominal_voltage 120;  } 

object transformer {
          name   T62463031930; 
          from   _20531_n; 
          to     T62463031930_n; 
          phases CN; 
          configuration SINGLE_PHASE-TRAN-10-7200To120V; 
          } 

object node {name   T62463031930_n; phases CN; nominal_voltage 120;  } 

object overhead_line {
          name   _20509; 
          from   _20507_n; 
          to     _20509_n; 
          phases AN; 
          length 233.40714; 
          configuration SystemCnstDefaultAN__2 ACSR 1PH_n__2 ACSR N; 
          } 

object node {name   _20509_n; phases AN; nominal_voltage 7200;  } 

object overhead_line {
          name   _20423; 
          from   _20509_n; 
          to     _20423_n; 
          phases AN; 
          length 278.05594; 
          configuration SystemCnstDefaultAN__2 ACSR 1PH_n__2 ACSR N; 
          } 

object node {name   _20423_n; phases AN; nominal_voltage 7200;  } 

object overhead_line {
          name   _20424; 
          from   _20423_n; 
          to     _20424_n; 
          phases AN; 
          length 257.59631; 
          configuration SystemCnstDefaultAN__2 ACSR 1PH_n__2 ACSR N; 
          } 

object node {name   _20424_n; phases AN; nominal_voltage 7200;  } 

object overhead_line {
          name   _20350; 
          from   _20424_n; 
          to     _20350_n; 
          phases AN; 
          length 205.67314; 
          configuration SystemCnstDefaultAN__2 ACSR 1PH_n__2 ACSR N; 
          } 

object node {name   _20350_n; phases AN; nominal_voltage 7200;  } 

object overhead_line {
          name   _20341; 
          from   _20350_n; 
          to     _20341_n; 
          phases AN; 
          length 83.317947; 
          configuration SystemCnstDefaultAN__2 ACSR 1PH_n__2 ACSR N; 
          } 

object node {name   _20341_n; phases AN; nominal_voltage 7200;  } 

object underground_line {
          name   _58262; 
          from   _20341_n; 
          to     _58262_n; 
          phases AN; 
          length 25.000002; 
          configuration SystemCnstDefaultA__1/0 URDJ1; 
          } 

object node {name   _58262_n; phases AN; nominal_voltage 7200;  } 

object fuse {
          name          F7427; 
          from          _58262_n; 
          to            F7427_n; 
          phases        AN; 
          current_limit 0; 
          mean_replacement_time 1.0 ; 
          repair_dist_type      NONE; 
          } 

object node {name   F7427_n; phases AN; nominal_voltage 7200;  } 

object underground_line {
          name   _58261; 
          from   F7427_n; 
          to     _58261_n; 
          phases AN; 
          length 100.74792; 
          configuration SystemCnstDefaultA__1/0 URDJ1; 
          } 

object node {name   _58261_n; phases AN; nominal_voltage 7200;  } 

object transformer {
          name   T62474207223; 
          from   _58261_n; 
          to     T62474207223_n; 
          phases AN; 
          configuration SINGLE_PHASE-PAD-50-7200To120V; 
          } 

object node {name   T62474207223_n; phases AN; nominal_voltage 120;  } 

object transformer {
          name   T62474208138; 
          from   _20424_n; 
          to     T62474208138_n; 
          phases AN; 
          configuration SINGLE_PHASE-TRAN-19-7200To120V; 
          } 

object node {name   T62474208138_n; phases AN; nominal_voltage 120;  } 

object transformer {
          name   T62474207085; 
          from   _20423_n; 
          to     T62474207085_n; 
          phases AN; 
          configuration SINGLE_PHASE-TRAN-19-7200To120V; 
          } 

object node {name   T62474207085_n; phases AN; nominal_voltage 120;  } 

object transformer {
          name   T62463028953; 
          from   _20509_n; 
          to     T62463028953_n; 
          phases AN; 
          configuration SINGLE_PHASE-TRAN-15-7200To120V; 
          } 

object node {name   T62463028953_n; phases AN; nominal_voltage 120;  } 

object overhead_line {
          name   _20367; 
          from   _20506_n; 
          to     _20367_n; 
          phases ABCN; 
          length 144.10289; 
          configuration SystemCnstDefaultABCN__336 ACSR 3PH_n__336 ACSR N; 
          } 

object node {name   _20367_n; phases ABCN; nominal_voltage 7200;  } 

object overhead_line {
          name   _20286; 
          from   _20367_n; 
          to     _20286_n; 
          phases ABCN; 
          length 266.65976; 
          configuration SystemCnstDefaultABCN__336 ACSR 3PH_n__336 ACSR N; 
          } 

object node {name   _20286_n; phases ABCN; nominal_voltage 7200;  } 

object overhead_line {
          name   _20287; 
          from   _20286_n; 
          to     _20287_n; 
          phases AN; 
          length 27.537382; 
          configuration SystemCnstDefaultAN__2 ACSR 1PH_n__2 ACSR N; 
          } 

object node {name   _20287_n; phases AN; nominal_voltage 7200;  } 

object fuse {
          name          F6543; 
          from          _20287_n; 
          to            F6543_n; 
          phases        AN; 
          current_limit 0; 
          mean_replacement_time 1.0 ; 
          repair_dist_type      NONE; 
          } 

object node {name   F6543_n; phases AN; nominal_voltage 7200;  } 

object overhead_line {
          name   _20288; 
          from   F6543_n; 
          to     _20288_n; 
          phases AN; 
          length 338.42255; 
          configuration SystemCnstDefaultAN__2 ACSR 1PH_n__2 ACSR N; 
          } 

object node {name   _20288_n; phases AN; nominal_voltage 7200;  } 

object transformer {
          name   T62463026955; 
          from   _20288_n; 
          to     T62463026955_n; 
          phases AN; 
          configuration SINGLE_PHASE-TRAN-15-7200To120V; 
          } 

object node {name   T62463026955_n; phases AN; nominal_voltage 120;  } 

object overhead_line {
          name   _20208; 
          from   _20286_n; 
          to     _20208_n; 
          phases ABCN; 
          length 393.55362; 
          configuration SystemCnstDefaultABCN__2 ACSR 3PH_n__2 ACSR N; 
          } 

object node {name   _20208_n; phases ABCN; nominal_voltage 7200;  } 

object overhead_line {
          name   _20171; 
          from   _20208_n; 
          to     _20171_n; 
          phases ABCN; 
          length 208.15279; 
          configuration SystemCnstDefaultABCN__2 ACSR 3PH_n__2 ACSR N; 
          } 

object node {name   _20171_n; phases ABCN; nominal_voltage 7200;  } 

object overhead_line {
          name   _20172; 
          from   _20171_n; 
          to     _20172_n; 
          phases AN; 
          length 197.81665; 
          configuration SystemCnstDefaultAN__2 ACSR 1PH_n__2 ACSR N; 
          } 

object node {name   _20172_n; phases AN; nominal_voltage 7200;  } 

object transformer {
          name   T62474205022; 
          from   _20172_n; 
          to     T62474205022_n; 
          phases AN; 
          configuration SINGLE_PHASE-TRAN-15-7200To120V; 
          } 

object node {name   T62474205022_n; phases AN; nominal_voltage 120;  } 

object underground_line {
          name   _58198; 
          from   _20171_n; 
          to     _58198_n; 
          phases ABCN; 
          length 24.999884; 
          configuration SystemCnstDefaultABC__1/0 URDJ3; 
          } 

object node {name   _58198_n; phases ABCN; nominal_voltage 7200;  } 

object fuse {
          name          F7508; 
          from          _58198_n; 
          to            F7508_n; 
          phases        ABCN; 
          current_limit 0; 
          mean_replacement_time 1.0 ; 
          repair_dist_type      NONE; 
          } 

object node {name   F7508_n; phases ABCN; nominal_voltage 7200;  } 

object underground_line {
          name   _58181; 
          from   F7508_n; 
          to     _58181_n; 
          phases ABCN; 
          length 179.16051; 
          configuration SystemCnstDefaultABC__1/0 URDJ3; 
          } 

object node {name   _58181_n; phases ABCN; nominal_voltage 7200;  } 

object underground_line {
          name   _58136; 
          from   _58181_n; 
          to     _58136_n; 
          phases ABCN; 
          length 387.42612; 
          configuration SystemCnstDefaultABC__1/0 URDJ3; 
          } 

object node {name   _58136_n; phases ABCN; nominal_voltage 7200;  } 

object underground_line {
          name   _58131; 
          from   _58136_n; 
          to     _58131_n; 
          phases ABCN; 
          length 276.4234; 
          configuration SystemCnstDefaultABC__1/0 URDJ3; 
          } 

object node {name   _58131_n; phases ABCN; nominal_voltage 7200;  } 

object underground_line {
          name   _58134; 
          from   _58131_n; 
          to     _58134_n; 
          phases ABCN; 
          length 20.61684; 
          configuration SystemCnstDefaultABC__1/0 URDJ3; 
          } 

object node {name   _58134_n; phases ABCN; nominal_voltage 7200;  } 

object underground_line {
          name   _58135; 
          from   _58134_n; 
          to     _58135_n; 
          phases ABCN; 
          length 90.043343; 
          configuration SystemCnstDefaultABC__1/0 URDJ3; 
          } 

object node {name   _58135_n; phases ABCN; nominal_voltage 7200;  } 

object underground_line {
          name   _58137; 
          from   _58135_n; 
          to     _58137_n; 
          phases CN; 
          length 24.999796; 
          configuration SystemCnstDefaultC__1/0 URDJ1; 
          } 

object node {name   _58137_n; phases CN; nominal_voltage 7200;  } 

object underground_line {
          name   _58143; 
          from   _58137_n; 
          to     _58143_n; 
          phases CN; 
          length 143.1158; 
          configuration SystemCnstDefaultC__1/0 URDJ1; 
          } 

object node {name   _58143_n; phases CN; nominal_voltage 7200;  } 

object underground_line {
          name   _58172; 
          from   _58143_n; 
          to     _58172_n; 
          phases CN; 
          length 204.81128; 
          configuration SystemCnstDefaultC__1/0 URDJ1; 
          } 

object node {name   _58172_n; phases CN; nominal_voltage 7200;  } 

object transformer {
          name   T62474204354; 
          from   _58172_n; 
          to     T62474204354_n; 
          phases CN; 
          configuration SINGLE_PHASE-PAD-75-7200To120V; 
          } 

object node {name   T62474204354_n; phases CN; nominal_voltage 120;  } 

object transformer {
          name   T62474203356; 
          from   _58143_n; 
          to     T62474203356_n; 
          phases CN; 
          configuration SINGLE_PHASE-PAD-50-7200To120V; 
          } 

object node {name   T62474203356_n; phases CN; nominal_voltage 120;  } 

object underground_line {
          name   _58138; 
          from   _58135_n; 
          to     _58138_n; 
          phases ABCN; 
          length 25.000244; 
          configuration SystemCnstDefaultABC__1/0 URDJ3; 
          } 

object node {name   _58138_n; phases ABCN; nominal_voltage 7200;  } 

object underground_line {
          name   _58139; 
          from   _58138_n; 
          to     _58139_n; 
          phases ABCN; 
          length 75.008034; 
          configuration SystemCnstDefaultABC__1/0 URDJ3; 
          } 

object node {name   _58139_n; phases ABCN; nominal_voltage 7200;  } 

object underground_line {
          name   _58140; 
          from   _58139_n; 
          to     _58140_n; 
          phases ABCN; 
          length 200.30598; 
          configuration SystemCnstDefaultABC__1/0 URDJ3; 
          } 

object node {name   _58140_n; phases ABCN; nominal_voltage 7200;  } 

object underground_line {
          name   _58141; 
          from   _58140_n; 
          to     _58141_n; 
          phases ABCN; 
          length 100.91383; 
          configuration SystemCnstDefaultABC__1/0 URDJ3; 
          } 

object node {name   _58141_n; phases ABCN; nominal_voltage 7200;  } 

object underground_line {
          name   _58144; 
          from   _58141_n; 
          to     _58144_n; 
          phases AN; 
          length 167.61687; 
          configuration SystemCnstDefaultA__1/0 URDJ1; 
          } 

object node {name   _58144_n; phases AN; nominal_voltage 7200;  } 

object underground_line {
          name   _58177; 
          from   _58144_n; 
          to     _58177_n; 
          phases AN; 
          length 212.67079; 
          configuration SystemCnstDefaultA__1/0 URDJ1; 
          } 

object node {name   _58177_n; phases AN; nominal_voltage 7200;  } 

object underground_line {
          name   _57921; 
          from   _58177_n; 
          to     _57921_n; 
          phases AN; 
          length 270.72189; 
          configuration SystemCnstDefaultA__1/0 URDJ1; 
          } 

object node {name   _57921_n; phases AN; nominal_voltage 7200;  } 

object underground_line {
          name   _58233; 
          from   _57921_n; 
          to     _58233_n; 
          phases AN; 
          length 199.87967; 
          configuration SystemCnstDefaultA__1/0 URDJ1; 
          } 

object node {name   _58233_n; phases AN; nominal_voltage 7200;  } 

object underground_line {
          name   _58240; 
          from   _58233_n; 
          to     _58240_n; 
          phases AN; 
          length 190.02165; 
          configuration SystemCnstDefaultA__1/0 URDJ1; 
          } 

object node {name   _58240_n; phases AN; nominal_voltage 7200;  } 

object underground_line {
          name   _58260; 
          from   _58240_n; 
          to     _58260_n; 
          phases AN; 
          length 319.94461; 
          configuration SystemCnstDefaultA__1/0 URDJ1; 
          } 

object node {name   _58260_n; phases AN; nominal_voltage 7200;  } 

object transformer {
          name   T62474207437; 
          from   _58260_n; 
          to     T62474207437_n; 
          phases AN; 
          configuration SINGLE_PHASE-PAD-25-7200To120V; 
          } 

object node {name   T62474207437_n; phases AN; nominal_voltage 120;  } 

object transformer {
          name   T62474207612; 
          from   _58240_n; 
          to     T62474207612_n; 
          phases AN; 
          configuration SINGLE_PHASE-PAD-75-7200To120V; 
          } 

object node {name   T62474207612_n; phases AN; nominal_voltage 120;  } 

object underground_line {
          name   _58241; 
          from   _58233_n; 
          to     _58241_n; 
          phases AN; 
          length 200.18951; 
          configuration SystemCnstDefaultA__1/0 URDJ1; 
          } 

object node {name   _58241_n; phases AN; nominal_voltage 7200;  } 

object underground_line {
          name   _58243; 
          from   _58241_n; 
          to     _58243_n; 
          phases AN; 
          length 198.96803; 
          configuration SystemCnstDefaultA__1/0 URDJ1; 
          } 

object node {name   _58243_n; phases AN; nominal_voltage 7200;  } 

object underground_line {
          name   _58242; 
          from   _58243_n; 
          to     _58242_n; 
          phases AN; 
          length 297.29312; 
          configuration SystemCnstDefaultA__1/0 URDJ1; 
          } 

object node {name   _58242_n; phases AN; nominal_voltage 7200;  } 

object transformer {
          name   T62474207830; 
          from   _58242_n; 
          to     T62474207830_n; 
          phases AN; 
          configuration SINGLE_PHASE-PAD-50-7200To120V; 
          } 

object node {name   T62474207830_n; phases AN; nominal_voltage 120;  } 

object underground_line {
          name   _57997; 
          from   _58243_n; 
          to     _57997_n; 
          phases AN; 
          length 269.85648; 
          configuration SystemCnstDefaultA__1/0 URDJ1; 
          } 

object node {name   _57997_n; phases AN; nominal_voltage 7200;  } 

object underground_line {
          name   _57911; 
          from   _57997_n; 
          to     _57911_n; 
          phases AN; 
          length 183.0256; 
          configuration SystemCnstDefaultA__1/0 URDJ1; 
          } 

object node {name   _57911_n; phases AN; nominal_voltage 7200;  } 

object underground_line {
          name   _58263; 
          from   _57911_n; 
          to     _58263_n; 
          phases AN; 
          length 186.84764; 
          configuration SystemCnstDefaultA__1/0 URDJ1; 
          } 

object node {name   _58263_n; phases AN; nominal_voltage 7200;  } 

object transformer {
          name   T62474208904; 
          from   _58263_n; 
          to     T62474208904_n; 
          phases AN; 
          configuration SINGLE_PHASE-PAD-25-7200To120V; 
          } 

object node {name   T62474208904_n; phases AN; nominal_voltage 120;  } 

object transformer {
          name   T62474207936; 
          from   _57911_n; 
          to     T62474207936_n; 
          phases AN; 
          configuration SINGLE_PHASE-PAD-50-7200To120V; 
          } 

object node {name   T62474207936_n; phases AN; nominal_voltage 120;  } 

object transformer {
          name   T62474206947; 
          from   _57997_n; 
          to     T62474206947_n; 
          phases AN; 
          configuration SINGLE_PHASE-PAD-50-7200To120V; 
          } 

object node {name   T62474206947_n; phases AN; nominal_voltage 120;  } 

object transformer {
          name   T62474206824; 
          from   _58243_n; 
          to     T62474206824_n; 
          phases AN; 
          configuration SINGLE_PHASE-PAD-25-7200To120V; 
          } 

object node {name   T62474206824_n; phases AN; nominal_voltage 120;  } 

object transformer {
          name   T62474206724; 
          from   _58241_n; 
          to     T62474206724_n; 
          phases AN; 
          configuration SINGLE_PHASE-PAD-25-7200To120V; 
          } 

object node {name   T62474206724_n; phases AN; nominal_voltage 120;  } 

object transformer {
          name   T62474206624; 
          from   _58233_n; 
          to     T62474206624_n; 
          phases AN; 
          configuration SINGLE_PHASE-PAD-25-7200To120V; 
          } 

object node {name   T62474206624_n; phases AN; nominal_voltage 120;  } 

object transformer {
          name   T62474206505; 
          from   _57921_n; 
          to     T62474206505_n; 
          phases AN; 
          configuration SINGLE_PHASE-PAD-25-7200To120V; 
          } 

object node {name   T62474206505_n; phases AN; nominal_voltage 120;  } 

object transformer {
          name   T62474204575; 
          from   _58177_n; 
          to     T62474204575_n; 
          phases AN; 
          configuration SINGLE_PHASE-PAD-50-7200To120V; 
          } 

object node {name   T62474204575_n; phases AN; nominal_voltage 120;  } 

object transformer {
          name   T62474203566; 
          from   _58144_n; 
          to     T62474203566_n; 
          phases AN; 
          configuration SINGLE_PHASE-PAD-50-7200To120V; 
          } 

object node {name   T62474203566_n; phases AN; nominal_voltage 120;  } 

object underground_line {
          name   _58145; 
          from   _58141_n; 
          to     _58145_n; 
          phases ABCN; 
          length 99.79055; 
          configuration SystemCnstDefaultABC__1/0 URDJ3; 
          } 

object node {name   _58145_n; phases ABCN; nominal_voltage 7200;  } 

object underground_line {
          name   _58146; 
          from   _58145_n; 
          to     _58146_n; 
          phases ABCN; 
          length 199.7157; 
          configuration SystemCnstDefaultABC__1/0 URDJ3; 
          } 

object node {name   _58146_n; phases ABCN; nominal_voltage 7200;  } 

object underground_line {
          name   _58150; 
          from   _58146_n; 
          to     _58150_n; 
          phases ABCN; 
          length 239.8526; 
          configuration SystemCnstDefaultABC__1/0 URDJ3; 
          } 

object node {name   _58150_n; phases ABCN; nominal_voltage 7200;  } 

object transformer {
          name   T62474203769; 
          from   _58150_n; 
          to     T62474203769_n; 
          phases AN; 
          configuration SINGLE_PHASE-PAD-50-7200To120V; 
          } 

object node {name   T62474203769_n; phases AN; nominal_voltage 120;  } 

object underground_line {
          name   _58176; 
          from   _58150_n; 
          to     _58176_n; 
          phases BCN; 
          length 170.7757; 
          configuration SystemCnstDefaultBC__1/0 URDJ2; 
          } 

object node {name   _58176_n; phases BCN; nominal_voltage 7200;  } 

object underground_line {
          name   _57977; 
          from   _58176_n; 
          to     _57977_n; 
          phases BCN; 
          length 199.99123; 
          configuration SystemCnstDefaultBC__1/0 URDJ2; 
          } 

object node {name   _57977_n; phases BCN; nominal_voltage 7200;  } 

object underground_line {
          name   _57981; 
          from   _57977_n; 
          to     _57981_n; 
          phases BCN; 
          length 199.98541; 
          configuration SystemCnstDefaultBC__1/0 URDJ2; 
          } 

object node {name   _57981_n; phases BCN; nominal_voltage 7200;  } 

object underground_line {
          name   _57919; 
          from   _57981_n; 
          to     _57919_n; 
          phases BCN; 
          length 170.85237; 
          configuration SystemCnstDefaultBC__1/0 URDJ2; 
          } 

object node {name   _57919_n; phases BCN; nominal_voltage 7200;  } 

object underground_line {
          name   _58183; 
          from   _57981_n; 
          to     _58183_n; 
          phases BN; 
          length 186.28983; 
          configuration SystemCnstDefaultB__1/0 URDJ1; 
          } 

object node {name   _58183_n; phases BN; nominal_voltage 7200;  } 

object underground_line {
          name   _58142; 
          from   _58183_n; 
          to     _58142_n; 
          phases BN; 
          length 207.45789; 
          configuration SystemCnstDefaultB__1/0 URDJ1; 
          } 

object node {name   _58142_n; phases BN; nominal_voltage 7200;  } 

object transformer {
          name   T62474202989; 
          from   _58142_n; 
          to     T62474202989_n; 
          phases BN; 
          configuration SINGLE_PHASE-PAD-50-7200To120V; 
          } 

object node {name   T62474202989_n; phases BN; nominal_voltage 120;  } 

object transformer {
          name   T62474203987; 
          from   _58183_n; 
          to     T62474203987_n; 
          phases BN; 
          configuration SINGLE_PHASE-PAD-50-7200To120V; 
          } 

object node {name   T62474203987_n; phases BN; nominal_voltage 120;  } 

object transformer {
          name   T62474204979; 
          from   _57981_n; 
          to     T62474204979_n; 
          phases BN; 
          configuration SINGLE_PHASE-PAD-50-7200To120V; 
          } 

object node {name   T62474204979_n; phases BN; nominal_voltage 120;  } 

object transformer {
          name   T62474204859; 
          from   _57977_n; 
          to     T62474204859_n; 
          phases CN; 
          configuration SINGLE_PHASE-PAD-25-7200To120V; 
          } 

object node {name   T62474204859_n; phases CN; nominal_voltage 120;  } 

object transformer {
          name   T62474204749; 
          from   _58176_n; 
          to     T62474204749_n; 
          phases BN; 
          configuration SINGLE_PHASE-PAD-50-7200To120V; 
          } 

object node {name   T62474204749_n; phases BN; nominal_voltage 120;  } 

object transformer {
          name   T62474202791; 
          from   _58146_n; 
          to     T62474202791_n; 
          phases CN; 
          configuration SINGLE_PHASE-PAD-25-7200To120V; 
          } 

object node {name   T62474202791_n; phases CN; nominal_voltage 120;  } 

object transformer {
          name   T62474202681; 
          from   _58145_n; 
          to     T62474202681_n; 
          phases BN; 
          configuration SINGLE_PHASE-PAD-25-7200To120V; 
          } 

object node {name   T62474202681_n; phases BN; nominal_voltage 120;  } 

object transformer {
          name   T62474202581; 
          from   _58140_n; 
          to     T62474202581_n; 
          phases AN; 
          configuration SINGLE_PHASE-PAD-25-7200To120V; 
          } 

object node {name   T62474202581_n; phases AN; nominal_voltage 120;  } 

object transformer {
          name   T62474202471; 
          from   _58139_n; 
          to     T62474202471_n; 
          phases AN; 
          configuration SINGLE_PHASE-PAD-25-7200To120V; 
          } 

object node {name   T62474202471_n; phases AN; nominal_voltage 120;  } 

object transformer {
          name   T62474202362; 
          from   _58134_n; 
          to     T62474202362_n; 
          phases AN; 
          configuration SINGLE_PHASE-PAD-25-7200To120V; 
          } 

object node {name   T62474202362_n; phases AN; nominal_voltage 120;  } 

object transformer {
          name   T62474202360; 
          from   _58131_n; 
          to     T62474202360_n; 
          phases BN; 
          configuration SINGLE_PHASE-PAD-25-7200To120V; 
          } 

object node {name   T62474202360_n; phases BN; nominal_voltage 120;  } 

object transformer {
          name   T62474202166; 
          from   _58136_n; 
          to     T62474202166_n; 
          phases CN; 
          configuration SINGLE_PHASE-PAD-25-7200To120V; 
          } 

object node {name   T62474202166_n; phases CN; nominal_voltage 120;  } 

object underground_line {
          name   _58149; 
          from   _58181_n; 
          to     _58149_n; 
          phases BN; 
          length 179.45184; 
          configuration SystemCnstDefaultB__1/0 URDJ1; 
          } 

object node {name   _58149_n; phases BN; nominal_voltage 7200;  } 

object underground_line {
          name   _58119; 
          from   _58149_n; 
          to     _58119_n; 
          phases BN; 
          length 131.43675; 
          configuration SystemCnstDefaultB__1/0 URDJ1; 
          } 

object node {name   _58119_n; phases BN; nominal_voltage 7200;  } 

object transformer {
          name   T62463022938; 
          from   _58119_n; 
          to     T62463022938_n; 
          phases BN; 
          configuration SINGLE_PHASE-PAD-50-7200To120V; 
          } 

object node {name   T62463022938_n; phases BN; nominal_voltage 120;  } 

object transformer {
          name   T62463022999; 
          from   _58149_n; 
          to     T62463022999_n; 
          phases BN; 
          configuration SINGLE_PHASE-PAD-50-7200To120V; 
          } 

object node {name   T62463022999_n; phases BN; nominal_voltage 120;  } 

object transformer {
          name   T62474203073; 
          from   _58181_n; 
          to     T62474203073_n; 
          phases BN; 
          configuration SINGLE_PHASE-PAD-25-7200To120V; 
          } 

object node {name   T62474203073_n; phases BN; nominal_voltage 120;  } 

object transformer {
          name   T62463025910; 
          from   _20208_n; 
          to     T62463025910_n; 
          phases BN; 
          configuration SINGLE_PHASE-TRAN-10-7200To120V; 
          } 

object node {name   T62463025910_n; phases BN; nominal_voltage 120;  } 

object overhead_line {
          name   _20248; 
          from   _20286_n; 
          to     _20248_n; 
          phases ABCN; 
          length 153.51741; 
          configuration SystemCnstDefaultABCN__336 ACSR 3PH_n__336 ACSR N; 
          } 

object node {name   _20248_n; phases ABCN; nominal_voltage 7200;  } 

object overhead_line {
          name   _20145; 
          from   _20248_n; 
          to     _20145_n; 
          phases ABCN; 
          length 357.00266; 
          configuration SystemCnstDefaultABCN__336 ACSR 3PH_n__336 ACSR N; 
          } 

object node {name   _20145_n; phases ABCN; nominal_voltage 7200;  } 

object overhead_line {
          name   _20050; 
          from   _20145_n; 
          to     _20050_n; 
          phases ABCN; 
          length 287.19965; 
          configuration SystemCnstDefaultABCN__336 ACSR 3PH_n__336 ACSR N; 
          } 

object node {name   _20050_n; phases ABCN; nominal_voltage 7200;  } 

object overhead_line {
          name   _19663; 
          from   _20050_n; 
          to     _19663_n; 
          phases ABCN; 
          length 211.22615; 
          configuration SystemCnstDefaultABCN__336 ACSR 3PH_n__336 ACSR N; 
          } 

object node {name   _19663_n; phases ABCN; nominal_voltage 7200;  } 

object overhead_line {
          name   _19658; 
          from   _19663_n; 
          to     _19658_n; 
          phases CN; 
          length 25.000036; 
          configuration SystemCnstDefaultCN__2 ACSR 1PH_n__2 ACSR N; 
          } 

object node {name   _19658_n; phases CN; nominal_voltage 7200;  } 

object fuse {
          name          F7580; 
          from          _19658_n; 
          to            F7580_n; 
          phases        CN; 
          current_limit 0; 
          mean_replacement_time 1.0 ; 
          repair_dist_type      NONE; 
          } 

object node {name   F7580_n; phases CN; nominal_voltage 7200;  } 

object overhead_line {
          name   _19652; 
          from   F7580_n; 
          to     _19652_n; 
          phases CN; 
          length 228.97275; 
          configuration SystemCnstDefaultCN__2 ACSR 1PH_n__2 ACSR N; 
          } 

object node {name   _19652_n; phases CN; nominal_voltage 7200;  } 

object transformer {
          name   T62463021550; 
          from   _19652_n; 
          to     T62463021550_n; 
          phases CN; 
          configuration SINGLE_PHASE-TRAN-19-7200To120V; 
          } 

object node {name   T62463021550_n; phases CN; nominal_voltage 120;  } 

object overhead_line {
          name   _19935; 
          from   _19663_n; 
          to     _19935_n; 
          phases ABCN; 
          length 194.65448; 
          configuration SystemCnstDefaultABCN__336 ACSR 3PH_n__336 ACSR N; 
          } 

object node {name   _19935_n; phases ABCN; nominal_voltage 7200;  } 

object overhead_line {
          name   _19597; 
          from   _19935_n; 
          to     _19597_n; 
          phases ABCN; 
          length 222.04384; 
          configuration SystemCnstDefaultABCN__336 ACSR 3PH_n__336 ACSR N; 
          } 

object node {name   _19597_n; phases ABCN; nominal_voltage 7200;  } 

object overhead_line {
          name   _19596; 
          from   _19597_n; 
          to     _19596_n; 
          phases BN; 
          length 25.000147; 
          configuration SystemCnstDefaultBN__6 ACWC 1PH_n__6 ACWC N; 
          } 

object node {name   _19596_n; phases BN; nominal_voltage 7200;  } 

object fuse {
          name          F7581; 
          from          _19596_n; 
          to            F7581_n; 
          phases        BN; 
          current_limit 0; 
          mean_replacement_time 1.0 ; 
          repair_dist_type      NONE; 
          } 

object node {name   F7581_n; phases BN; nominal_voltage 7200;  } 

object overhead_line {
          name   _19599; 
          from   F7581_n; 
          to     _19599_n; 
          phases BN; 
          length 473.40637; 
          configuration SystemCnstDefaultBN__6 ACWC 1PH_n__6 ACWC N; 
          } 

object node {name   _19599_n; phases BN; nominal_voltage 7200;  } 

object overhead_line {
          name   _19915; 
          from   _19599_n; 
          to     _19915_n; 
          phases BN; 
          length 82.156609; 
          configuration SystemCnstDefaultBN__2 ACSR 1PH_n__2 ACSR N; 
          } 

object node {name   _19915_n; phases BN; nominal_voltage 7200;  } 

object overhead_line {
          name   _19574; 
          from   _19915_n; 
          to     _19574_n; 
          phases BN; 
          length 406.31454; 
          configuration SystemCnstDefaultBN__2 ACSR 1PH_n__2 ACSR N; 
          } 

object node {name   _19574_n; phases BN; nominal_voltage 7200;  } 

object transformer {
          name   T62463018961; 
          from   _19574_n; 
          to     T62463018961_n; 
          phases BN; 
          configuration SINGLE_PHASE-TRAN-19-7200To120V; 
          } 

object node {name   T62463018961_n; phases BN; nominal_voltage 120;  } 

object transformer {
          name   T62463020860; 
          from   _19599_n; 
          to     T62463020860_n; 
          phases BN; 
          configuration SINGLE_PHASE-TRAN-19-7200To120V; 
          } 

object node {name   T62463020860_n; phases BN; nominal_voltage 120;  } 

object overhead_line {
          name   _19930; 
          from   _19599_n; 
          to     _19930_n; 
          phases BN; 
          length 163.18739; 
          configuration SystemCnstDefaultBN__2 ACSR 1PH_n__2 ACSR N; 
          } 

object node {name   _19930_n; phases BN; nominal_voltage 7200;  } 

object transformer {
          name   T62463020868; 
          from   _19930_n; 
          to     T62463020868_n; 
          phases BN; 
          configuration SINGLE_PHASE-TRAN-15-7200To120V; 
          } 

object node {name   T62463020868_n; phases BN; nominal_voltage 120;  } 

object overhead_line {
          name   _19852; 
          from   _19597_n; 
          to     _19852_n; 
          phases ABCN; 
          length 273.4899; 
          configuration SystemCnstDefaultABCN__336 ACSR 3PH_n__336 ACSR N; 
          } 

object node {name   _19852_n; phases ABCN; nominal_voltage 7200;  } 

object overhead_line {
          name   _19815; 
          from   _19852_n; 
          to     _19815_n; 
          phases ABCN; 
          length 335.4444; 
          configuration SystemCnstDefaultABCN__336 ACSR 3PH_n__336 ACSR N; 
          } 

object node {name   _19815_n; phases ABCN; nominal_voltage 7200;  } 

object overhead_line {
          name   _19765; 
          from   _19815_n; 
          to     _19765_n; 
          phases ABCN; 
          length 386.82248; 
          configuration SystemCnstDefaultABCN__336 ACSR 3PH_n__336 ACSR N; 
          } 

object node {name   _19765_n; phases ABCN; nominal_voltage 7200;  } 

object overhead_line {
          name   _19764; 
          from   _19765_n; 
          to     _19764_n; 
          phases CN; 
          length 25.000113; 
          configuration SystemCnstDefaultCN__2 ACSR 1PH_n__2 ACSR N; 
          } 

object node {name   _19764_n; phases CN; nominal_voltage 7200;  } 

object fuse {
          name          F7584; 
          from          _19764_n; 
          to            F7584_n; 
          phases        CN; 
          current_limit 0; 
          mean_replacement_time 1.0 ; 
          repair_dist_type      NONE; 
          } 

object node {name   F7584_n; phases CN; nominal_voltage 7200;  } 

object overhead_line {
          name   _19776; 
          from   F7584_n; 
          to     _19776_n; 
          phases CN; 
          length 336.59558; 
          configuration SystemCnstDefaultCN__2 ACSR 1PH_n__2 ACSR N; 
          } 

object node {name   _19776_n; phases CN; nominal_voltage 7200;  } 

object transformer {
          name   T62463019150; 
          from   _19776_n; 
          to     T62463019150_n; 
          phases CN; 
          configuration SINGLE_PHASE-TRAN-15-7200To120V; 
          } 

object node {name   T62463019150_n; phases CN; nominal_voltage 120;  } 

object overhead_line {
          name   _19748; 
          from   _19765_n; 
          to     _19748_n; 
          phases ABCN; 
          length 137.97501; 
          configuration SystemCnstDefaultABCN__336 ACSR 3PH_n__336 ACSR N; 
          } 

object node {name   _19748_n; phases ABCN; nominal_voltage 7200;  } 

object overhead_line {
          name   _19731; 
          from   _19748_n; 
          to     _19731_n; 
          phases ABCN; 
          length 155.7892; 
          configuration SystemCnstDefaultABCN__336 ACSR 3PH_n__336 ACSR N; 
          } 

object node {name   _19731_n; phases ABCN; nominal_voltage 7200;  } 

object overhead_line {
          name   _19589; 
          from   _19731_n; 
          to     _19589_n; 
          phases ABCN; 
          length 172.63855; 
          configuration SystemCnstDefaultABCN__336 ACSR 3PH_n__336 ACSR N; 
          } 

object node {name   _19589_n; phases ABCN; nominal_voltage 7200;  } 

object overhead_line {
          name   _19538; 
          from   _19589_n; 
          to     _19538_n; 
          phases ABCN; 
          length 561.81543; 
          configuration SystemCnstDefaultABCN__336 ACSR 3PH_n__336 ACSR N; 
          } 

object node {name   _19538_n; phases ABCN; nominal_voltage 7200;  } 

object overhead_line {
          name   _19186; 
          from   _19538_n; 
          to     _19186_n; 
          phases ABCN; 
          length 169.6895; 
          configuration SystemCnstDefaultABCN__336 ACSR 3PH_n__336 ACSR N; 
          } 

object node {name   _19186_n; phases ABCN; nominal_voltage 7200;  } 

object overhead_line {
          name   _19501; 
          from   _19186_n; 
          to     _19501_n; 
          phases ABCN; 
          length 293.04083; 
          configuration SystemCnstDefaultABCN__336 ACSR 3PH_n__336 ACSR N; 
          } 

object node {name   _19501_n; phases ABCN; nominal_voltage 7200;  } 

object overhead_line {
          name   _19503; 
          from   _19501_n; 
          to     _19503_n; 
          phases CN; 
          length 27.566263; 
          configuration SystemCnstDefaultCN__2 ACSR 1PH_n__2 ACSR N; 
          } 

object node {name   _19503_n; phases CN; nominal_voltage 7200;  } 

object fuse {
          name          F5047; 
          from          _19503_n; 
          to            F5047_n; 
          phases        CN; 
          current_limit 0; 
          mean_replacement_time 1.0 ; 
          repair_dist_type      NONE; 
          } 

object node {name   F5047_n; phases CN; nominal_voltage 7200;  } 

object overhead_line {
          name   _19502; 
          from   F5047_n; 
          to     _19502_n; 
          phases CN; 
          length 224.55429; 
          configuration SystemCnstDefaultCN__2 ACSR 1PH_n__2 ACSR N; 
          } 

object node {name   _19502_n; phases CN; nominal_voltage 7200;  } 

object transformer {
          name   T62463075357; 
          from   _19502_n; 
          to     T62463075357_n; 
          phases CN; 
          configuration SINGLE_PHASE-TRAN-15-7200To120V; 
          } 

object node {name   T62463075357_n; phases CN; nominal_voltage 120;  } 

object overhead_line {
          name   _19345; 
          from   _19501_n; 
          to     _19345_n; 
          phases ABCN; 
          length 421.54166; 
          configuration SystemCnstDefaultABCN__336 ACSR 3PH_n__336 ACSR N; 
          } 

object node {name   _19345_n; phases ABCN; nominal_voltage 7200;  } 

object overhead_line {
          name   _18569; 
          from   _19345_n; 
          to     _18569_n; 
          phases AN; 
          length 25.00032; 
          configuration SystemCnstDefaultAN__2 ACSR 1PH_n__2 ACSR N; 
          } 

object node {name   _18569_n; phases AN; nominal_voltage 7200;  } 

object fuse {
          name          F7588; 
          from          _18569_n; 
          to            F7588_n; 
          phases        AN; 
          current_limit 0; 
          mean_replacement_time 1.0 ; 
          repair_dist_type      NONE; 
          } 

object node {name   F7588_n; phases AN; nominal_voltage 7200;  } 

object overhead_line {
          name   _19396; 
          from   F7588_n; 
          to     _19396_n; 
          phases AN; 
          length 262.79419; 
          configuration SystemCnstDefaultAN__2 ACSR 1PH_n__2 ACSR N; 
          } 

object node {name   _19396_n; phases AN; nominal_voltage 7200;  } 

object transformer {
          name   T62463072330; 
          from   _19396_n; 
          to     T62463072330_n; 
          phases AN; 
          configuration SINGLE_PHASE-TRAN-15-7200To120V; 
          } 

object node {name   T62463072330_n; phases AN; nominal_voltage 120;  } 

object overhead_line {
          name   _19384; 
          from   _19345_n; 
          to     _19384_n; 
          phases ABCN; 
          length 546.44562; 
          configuration SystemCnstDefaultABCN__336 ACSR 3PH_n__336 ACSR N; 
          } 

object node {name   _19384_n; phases ABCN; nominal_voltage 7200;  } 

object overhead_line {
          name   _70924; 
          from   _19384_n; 
          to     _70924_n; 
          phases ABCN; 
          length 131.06816; 
          configuration SystemCnstDefaultABCN__336 ACSR 3PH_n__336 ACSR N; 
          } 

object node {name   _70924_n; phases ABCN; nominal_voltage 7200;  } 

object overhead_line {
          name   _70925; 
          from   _70924_n; 
          to     _70925_n; 
          phases ABCN; 
          length 222.51633; 
          configuration SystemCnstDefaultABCN__336 ACSR 3PH_n__336 ACSR N; 
          } 

object node {name   _70925_n; phases ABCN; nominal_voltage 7200;  } 

object node {name   SW1250-B_D3_1_n; phases ABCN; nominal_voltage 7200;  } 

object switch {
          name   SW1250-B_D3_1; 
          from   _70925_n; 
          to     SW1250-B_D3_1_n; 
          phases ABCN; 
          status CLOSED; 
          } 

object overhead_line {
          name   _19281; 
          from   SW1250-B_D3_1_n; 
          to     _19281_n; 
          phases ABCN; 
          length 25.00016; 
          configuration SystemCnstDefaultABCN__336 ACSR 3PH_n__336 ACSR N; 
          } 

object node {name   _19281_n; phases ABCN; nominal_voltage 7200;  } 

object overhead_line {
          name   _19089; 
          from   _19281_n; 
          to     _19089_n; 
          phases ABCN; 
          length 226.37813; 
          configuration SystemCnstDefaultABCN__336 ACSR 3PH_n__336 ACSR N; 
          } 

object node {name   _19089_n; phases ABCN; nominal_voltage 7200;  } 

object overhead_line {
          name   _19083; 
          from   _19089_n; 
          to     _19083_n; 
          phases AN; 
          length 24.999769; 
          configuration SystemCnstDefaultAN__6 ACWC 1PH_n__6 ACWC N; 
          } 

object node {name   _19083_n; phases AN; nominal_voltage 7200;  } 

object fuse {
          name          F7590; 
          from          _19083_n; 
          to            F7590_n; 
          phases        AN; 
          current_limit 0; 
          mean_replacement_time 1.0 ; 
          repair_dist_type      NONE; 
          } 

object node {name   F7590_n; phases AN; nominal_voltage 7200;  } 

object overhead_line {
          name   _19043; 
          from   F7590_n; 
          to     _19043_n; 
          phases AN; 
          length 346.64218; 
          configuration SystemCnstDefaultAN__6 ACWC 1PH_n__6 ACWC N; 
          } 

object node {name   _19043_n; phases AN; nominal_voltage 7200;  } 

object transformer {
          name   T62463129845; 
          from   _19043_n; 
          to     T62463129845_n; 
          phases AN; 
          configuration SINGLE_PHASE-TRAN-19-7200To120V; 
          } 

...